LTspice 24.0.9 for Windows
Circuit: * C:\Users\hop\Documents\GitHub\TCLab\y_simulation\LTspice\01-tip32c_heater.asc
Start Time: Sun Aug 25 14:20:54 2024
Warning: Multiple definitions of model "2scr375p" Type: BJT
Warning: Multiple definitions of model "bc857b" Type: BJT
Warning: Multiple definitions of model "bc847c" Type: BJT
Warning: Multiple definitions of model "bc847b" Type: BJT
solver = Normal
Maximum thread count: 4



Per .tran options, skipping operating point for transient analysis.
.step rbase=470
tnom = 27
temp = 27
method = modified trap
.step rbase=1000
Total elapsed time: 0.170 seconds.

